# created with PyMOL
@<TRIPOS>MOLECULE
untitled
20 20 1
SMALL
USER_CHARGES
@<TRIPOS>ATOM
1	 CL1	-13.315	-28.609	-3.419	Cl	1	CLM221	0.000	
2	 CL2	-10.624	-28.297	-2.155	Cl	1	CLM221	0.000	
3	  C1	-12.175	-29.204	-2.161	C.3	1	CLM221	0.000	
4	  C2	-12.822	-29.129	-0.807	C.2	1	CLM221	0.000	
5	  N2	-14.117	-28.815	-0.799	N.am	1	CLM221	0.000	
6	  O2	-12.165	-29.357	0.196	O.2	1	CLM221	0.000	
7	  C3	-14.853	-28.439	0.390	C.3	1	CLM221	0.000	
8	  C4	-16.094	-29.323	0.484	C.3	1	CLM221	0.000	
9	  O4	-16.702	-29.211	1.774	O.3	1	CLM221	0.000	
10	  C5	-15.192	-26.949	0.324	C.3	1	CLM221	0.000	
11	  O5	-15.836	-26.665	-0.928	O.3	1	CLM221	0.000	
12	  C6	-13.972	-26.109	0.454	C.ar	1	CLM221	0.000	
13	  C7	-13.235	-26.098	1.646	C.ar	1	CLM221	0.000	
14	  C8	-12.093	-25.306	1.762	C.ar	1	CLM221	0.000	
15	  C9	-11.688	-24.520	0.681	C.ar	1	CLM221	0.000	
16	  N9	-10.544	-23.712	0.783	N.pl3	1	CLM221	0.000	
17	 O9A	-9.714	-23.681	-0.119	O.co2	1	CLM221	0.000	
18	 O9B	-10.383	-23.026	1.781	O.co2	1	CLM221	0.000	
19	 C10	-12.426	-24.525	-0.505	C.ar	1	CLM221	0.000	
20	 C11	-13.564	-25.318	-0.621	C.ar	1	CLM221	0.000	
@<TRIPOS>BOND
0 3 1 1
1 3 2 1
2 3 4 1
3 4 5 1
4 4 6 2
5 5 7 1
6 7 8 1
7 7 10 1
8 8 9 1
9 10 11 1
10 10 12 1
11 12 13 ar
12 12 20 ar
13 13 14 ar
14 14 15 ar
15 15 16 1
16 15 19 ar
17 16 17 ar
18 16 18 ar
19 19 20 ar
@<TRIPOS>SUBSTRUCTURE
1	CLM221	1	GROUP	1 C	CLM
