@<TRIPOS>MOLECULE
ACO
    32     34      1
SMALL
USER_CHARGES


@<TRIPOS>ATOM
       1  N1         4.8800    1.1080  -10.6500 N.ar      1 UNL1       -0.2188
       2  C1         3.8650    1.9490  -10.5870 C.ar      1 UNL1        0.1205
       3  N2         2.9060    1.8340   -9.6920 N.ar      1 UNL1       -0.2159
       4  C2         2.9220    0.8440   -8.8060 C.ar      1 UNL1        0.1674
       5  C3         3.9850   -0.0740   -8.8280 C.ar      1 UNL1        0.1473
       6  C4         4.9840    0.0900   -9.8020 C.ar      1 UNL1        0.1472
       7  N3         6.0520   -0.7860   -9.8760 N.pl3     1 UNL1       -0.3413
       8  N4         3.7650   -0.9630   -7.8300 N.ar      1 UNL1       -0.2306
       9  C5         2.6640   -0.6530   -7.2080 C.ar      1 UNL1        0.1004
      10  N5         2.1090    0.4570   -7.7710 N.ar      1 UNL1       -0.2855
      11  C6         0.8670    1.1130   -7.3520 C.3       1 UNL1        0.1667
      12  C7        -0.3590    0.4460   -8.0250 C.3       1 UNL1        0.1294
      13  O1        -0.6070    1.0170   -9.3120 O.3       1 UNL1       -0.3846
      14  C8        -1.5020    0.7960   -7.0360 C.3       1 UNL1        0.1283
      15  O2        -2.2290    1.9370   -7.4960 O.3       1 UNL1       -0.2780
      16  P1        -3.7620    1.4740   -7.6650 P.3       1 UNL1        0.4728
      17  O3        -4.2840    1.0090   -6.3610 O.2       1 UNL1       -0.2275
      18  O4        -4.6440    2.7170   -8.1840 O.3       1 UNL1       -0.3026
      19  O5        -3.8450    0.2740   -8.7360 O.3       1 UNL1       -0.3026
      20  C9        -0.7710    1.1100   -5.7160 C.3       1 UNL1        0.1142
      21  O6         0.6330    0.9050   -5.9430 O.3       1 UNL1       -0.3456
      22  H1         3.8190    2.7630  -11.2960 H         1 UNL1        0.1048
      23  H2         6.7360   -0.6620  -10.5530 H         1 UNL1        0.1438
      24  H3         6.1170   -1.5250   -9.2510 H         1 UNL1        0.1438
      25  H4         2.2510   -1.1950   -6.3710 H         1 UNL1        0.1030
      26  H5         0.9000    2.1770   -7.5830 H         1 UNL1        0.0866
      27  H6        -0.2240   -0.6320   -8.0990 H         1 UNL1        0.0666
      28  H7         0.1770    0.8440   -9.8500 H         1 UNL1        0.2101
      29  H8        -2.1700   -0.0540   -6.9080 H         1 UNL1        0.0656
      30  H9        -5.5520    2.3980   -8.2720 H         1 UNL1        0.2220
      31  H10       -3.4960    0.6190   -9.5690 H         1 UNL1        0.2220
      32  H11       -0.9520    2.1460   -5.4290 H         1 UNL1        0.0647
@<TRIPOS>BOND
       1        1        2 ar
       2        1        6 ar
       3        2        3 ar
       4        2       22 1
       5        3        4 ar
       6        4        5 ar
       7        4       10 ar
       8        5        6 ar
       9        5        8 ar
      10        6        7 1
      11        7       23 1
      12        7       24 1
      13        8        9 ar
      14        9       10 ar
      15        9       25 1
      16       10       11 1
      17       11       12 1
      18       11       21 1
      19       11       26 1
      20       12       13 1
      21       12       14 1
      22       12       27 1
      23       13       28 1
      24       14       15 1
      25       14       20 1
      26       14       29 1
      27       15       16 1
      28       16       17 2
      29       16       18 1
      30       16       19 1
      31       18       30 1
      32       19       31 1
      33       20       21 1
      34       20       32 1
M SPLT 20 22
M SPLT 32 33 
M SPLT 42 43
