@<TRIPOS>MOLECULE
ACO
 89 91 0 0 0
SMALL
GASTEIGER

@<TRIPOS>ATOM
      1 N           4.8800    1.1080  -10.6500 N.ar    1  UNL1       -0.2188
      2 C           3.8650    1.9490  -10.5870 C.ar    1  UNL1        0.1205
      3 N           2.9060    1.8340   -9.6920 N.ar    1  UNL1       -0.2159
      4 C           2.9220    0.8440   -8.8060 C.ar    1  UNL1        0.1674
      5 C           3.9850   -0.0740   -8.8280 C.ar    1  UNL1        0.1473
      6 C           4.9840    0.0900   -9.8020 C.ar    1  UNL1        0.1472
      7 N           6.0520   -0.7860   -9.8760 N.pl3   1  UNL1       -0.3413
      8 N           3.7650   -0.9630   -7.8300 N.ar    1  UNL1       -0.2306
      9 C           2.6640   -0.6530   -7.2080 C.ar    1  UNL1        0.1004
     10 N           2.1090    0.4570   -7.7710 N.ar    1  UNL1       -0.2855
     11 C           0.8670    1.1130   -7.3520 C.3     1  UNL1        0.1667
     12 C          -0.3590    0.4460   -8.0250 C.3     1  UNL1        0.1294
     13 O          -0.6070    1.0170   -9.3120 O.3     1  UNL1       -0.3846
     14 C          -1.5020    0.7960   -7.0360 C.3     1  UNL1        0.1283
     15 O          -2.2290    1.9370   -7.4960 O.3     1  UNL1       -0.2780
     16 P          -3.7620    1.4740   -7.6650 P.3     1  UNL1        0.4728
     17 O          -4.2840    1.0090   -6.3610 O.2     1  UNL1       -0.2275
     18 O          -4.6440    2.7170   -8.1840 O.3     1  UNL1       -0.3026
     19 O          -3.8450    0.2740   -8.7360 O.3     1  UNL1       -0.3026
     20 C          -0.7710    1.1100   -5.7160 C.3     1  UNL1        0.1142
     21 O           0.6330    0.9050   -5.9430 O.3     1  UNL1       -0.3456
     22 C          -1.2620    0.1710   -4.6130 C.3     1  UNL1        0.0879
     23 O          -0.5740    0.4640   -3.3960 O.3     1  UNL1       -0.2837
     24 P          -1.1380   -0.5550   -2.2850 P.3     1  UNL1        0.4835
     25 O          -0.8750   -1.9470   -2.7140 O.2     1  UNL1       -0.2269
     26 O          -2.7240   -0.3370   -2.1120 O.3     1  UNL1       -0.3022
     27 O          -0.4010   -0.2790   -0.8800 O.3     1  UNL1       -0.1861
     28 P          -1.0100   -1.3290    0.1780 P.3     1  UNL1        0.4834
     29 O          -2.4700   -1.1160    0.2990 O.2     1  UNL1       -0.2269
     30 O          -0.7270   -2.8300   -0.3300 O.3     1  UNL1       -0.3022
     31 O          -0.3150   -1.1080    1.6130 O.3     1  UNL1       -0.2857
     32 C          -0.2730   -1.9070    3.8930 C.3     1  UNL1        0.0235
     33 C          -0.8940   -2.0630    2.5040 C.3     1  UNL1        0.0670
     34 C          -0.5420   -0.4940    4.4160 C.3     1  UNL1       -0.0549
     35 C           1.2360   -2.1400    3.8070 C.3     1  UNL1       -0.0549
     36 C          -0.8930   -2.9290    4.8470 C.3     1  UNL1        0.1380
     37 O          -0.7440   -4.2420    4.3020 O.3     1  UNL1       -0.3820
     38 C          -0.1970   -2.8580    6.1820 C.2     1  UNL1        0.2423
     39 O           0.5790   -3.7300    6.5080 O.2     1  UNL1       -0.2730
     40 N          -0.4380   -1.8250    7.0130 N.am    1  UNL1       -0.3127
     41 C           0.2520   -1.7450    8.3020 C.3     1  UNL1        0.0199
     42 C          -0.1970   -0.4860    9.0460 C.3     1  UNL1        0.0395
     43 C           0.5130   -0.4040   10.3720 C.2     1  UNL1        0.2145
     44 O           1.3020   -1.2680   10.6910 O.2     1  UNL1       -0.2758
     45 N           0.2720    0.6280   11.2030 N.am    1  UNL1       -0.3145
     46 C           0.9630    0.7080   12.4920 C.3     1  UNL1        0.0210
     47 C           0.5130    1.9680   13.2350 C.3     1  UNL1        0.0165
     48 S           1.3670    2.0660   14.8280 S.3     1  UNL1       -0.0869
     49 C           0.7000    3.5220   15.4340 C.2     1  UNL1        0.1864
     50 O          -0.1110    4.1370   14.7750 O.2     1  UNL1       -0.2855
     51 C           1.1220    4.0390   16.7850 C.3     1  UNL1        0.0044
     52 H           3.8190    2.7630  -11.2960 H       1  UNL1        0.1048
     53 H           6.7360   -0.6620  -10.5530 H       1  UNL1        0.1438
     54 H           6.1170   -1.5250   -9.2510 H       1  UNL1        0.1438
     55 H           2.2510   -1.1950   -6.3710 H       1  UNL1        0.1030
     56 H           0.9000    2.1770   -7.5830 H       1  UNL1        0.0866
     57 H          -0.2240   -0.6320   -8.0990 H       1  UNL1        0.0666
     58 H           0.1770    0.8440   -9.8500 H       1  UNL1        0.2101
     59 H          -2.1700   -0.0540   -6.9080 H       1  UNL1        0.0656
     60 H          -5.5520    2.3980   -8.2720 H       1  UNL1        0.2220
     61 H          -3.4960    0.6190   -9.5690 H       1  UNL1        0.2220
     62 H          -0.9520    2.1460   -5.4290 H       1  UNL1        0.0647
     63 H          -1.0670   -0.8610   -4.9010 H       1  UNL1        0.0592
     64 H          -2.3340    0.3100   -4.4680 H       1  UNL1        0.0592
     65 H          -2.8510    0.5790   -1.8320 H       1  UNL1        0.2220
     66 H           0.2320   -2.9260   -0.3950 H       1  UNL1        0.2220
     67 H          -0.7020   -3.0700    2.1320 H       1  UNL1        0.0572
     68 H          -1.9690   -1.8970    2.5650 H       1  UNL1        0.0572
     69 H          -1.6090   -0.3720    4.6020 H       1  UNL1        0.0237
     70 H           0.0080   -0.3380    5.3430 H       1  UNL1        0.0237
     71 H          -0.2170    0.2350    3.6740 H       1  UNL1        0.0237
     72 H           1.4270   -3.1460    3.4350 H       1  UNL1        0.0237
     73 H           1.6770   -1.4110    3.1270 H       1  UNL1        0.0237
     74 H           1.6780   -2.0280    4.7970 H       1  UNL1        0.0237
     75 H          -1.9530   -2.7090    4.9780 H       1  UNL1        0.0696
     76 H           0.2050   -4.3960    4.2020 H       1  UNL1        0.2105
     77 H          -1.0700   -1.1340    6.7580 H       1  UNL1        0.1488
     78 H           1.3280   -1.7030    8.1350 H       1  UNL1        0.0467
     79 H           0.0110   -2.6250    8.8990 H       1  UNL1        0.0467
     80 H          -1.2740   -0.5280    9.2120 H       1  UNL1        0.0374
     81 H           0.0430    0.3930    8.4490 H       1  UNL1        0.0374
     82 H          -0.3580    1.3190   10.9470 H       1  UNL1        0.1487
     83 H           2.0400    0.7500   12.3250 H       1  UNL1        0.0470
     84 H           0.7220   -0.1710   13.0890 H       1  UNL1        0.0470
     85 H          -0.5620    1.9260   13.4020 H       1  UNL1        0.0396
     86 H           0.7540    2.8470   12.6380 H       1  UNL1        0.0396
     87 H           0.5950    4.9690   16.9980 H       1  UNL1        0.0315
     88 H           0.8790    3.3000   17.5490 H       1  UNL1        0.0315
     89 H           2.1960    4.2210   16.7850 H       1  UNL1        0.0315

@<TRIPOS>BOND
     1     1     2   ar
     2     1     6   ar
     3     2     3   ar
     4     2    52    1
     5     3     4   ar
     6     4     5   ar
     7     4    10   ar
     8     5     6   ar
     9     5     8   ar
    10     6     7    1
    11     7    53    1
    12     7    54    1
    13     8     9   ar
    14     9    10   ar
    15     9    55    1
    16    10    11    1
    17    11    12    1
    18    11    21    1
    19    11    56    1
    20    12    13    1
    21    12    14    1
    22    12    57    1
    23    13    58    1
    24    14    15    1
    25    14    20    1
    26    14    59    1
    27    15    16    1
    28    16    17    2
    29    16    18    1
    30    16    19    1
    31    18    60    1
    32    19    61    1
    33    20    21    1
    34    20    22    1
    35    20    62    1
    36    22    23    1
    37    22    63    1
    38    22    64    1
    39    23    24    1
    40    24    25    2
    41    24    26    1
    42    24    27    1
    43    26    65    1
    44    27    28    1
    45    28    29    2
    46    28    30    1
    47    28    31    1
    48    30    66    1
    49    31    33    1
    50    32    33    1
    51    32    34    1
    52    32    35    1
    53    32    36    1
    54    33    67    1
    55    33    68    1
    56    34    69    1
    57    34    70    1
    58    34    71    1
    59    35    72    1
    60    35    73    1
    61    35    74    1
    62    36    37    1
    63    36    38    1
    64    36    75    1
    65    37    76    1
    66    38    39    2
    67    38    40   am
    68    40    41    1
    69    40    77    1
    70    41    42    1
    71    41    78    1
    72    41    79    1
    73    42    43    1
    74    42    80    1
    75    42    81    1
    76    43    44    2
    77    43    45   am
    78    45    46    1
    79    45    82    1
    80    46    47    1
    81    46    83    1
    82    46    84    1
    83    47    48    1
    84    47    85    1
    85    47    86    1
    86    48    49    1
    87    49    50    2
    88    49    51    1
    89    51    87    1
    90    51    88    1
    91    51    89    1