@<TRIPOS>MOLECULE
ACO
    17     16      1
SMALL
USER_CHARGES


@<TRIPOS>ATOM
       1  C10       -1.2620    0.1710   -4.6130 C.3       1 UNL1        0.0879
       2  O7        -0.5740    0.4640   -3.3960 O.3       1 UNL1       -0.2837
       3  P2        -1.1380   -0.5550   -2.2850 P.3       1 UNL1        0.4835
       4  O8        -0.8750   -1.9470   -2.7140 O.2       1 UNL1       -0.2269
       5  O9        -2.7240   -0.3370   -2.1120 O.3       1 UNL1       -0.3022
       6  O10       -0.4010   -0.2790   -0.8800 O.3       1 UNL1       -0.1861
       7  P3        -1.0100   -1.3290    0.1780 P.3       1 UNL1        0.4834
       8  O11       -2.4700   -1.1160    0.2990 O.2       1 UNL1       -0.2269
       9  O12       -0.7270   -2.8300   -0.3300 O.3       1 UNL1       -0.3022
      10  O13       -0.3150   -1.1080    1.6130 O.3       1 UNL1       -0.2857
      11  C12       -0.8940   -2.0630    2.5040 C.3       1 UNL1        0.0670
      12  H12       -1.0670   -0.8610   -4.9010 H         1 UNL1        0.0592
      13  H13       -2.3340    0.3100   -4.4680 H         1 UNL1        0.0592
      14  H14       -2.8510    0.5790   -1.8320 H         1 UNL1        0.2220
      15  H15        0.2320   -2.9260   -0.3950 H         1 UNL1        0.2220
      16  H16       -0.7020   -3.0700    2.1320 H         1 UNL1        0.0572
      17  H17       -1.9690   -1.8970    2.5650 H         1 UNL1        0.0572
@<TRIPOS>BOND
       1        1        2 1
       2        1       12 1
       3        1       13 1
       4        2        3 1
       5        3        4 2
       6        3        5 1
       7        3        6 1
       8        5       14 1
       9        6        7 1
      10        7        8 2
      11        7        9 1
      12        7       10 1
      13        9       15 1
      14       10       11 1
      15       11       16 1
      16       11       17 1
M SPLT 20 22
M SPLT 32 33 
M SPLT 42 43
