@<TRIPOS>MOLECULE
ACO
    23     22      1
SMALL
USER_CHARGES


@<TRIPOS>ATOM
       1  C11       -0.2730   -1.9070    3.8930 C.3       1 UNL1        0.0235
       2  C13       -0.5420   -0.4940    4.4160 C.3       1 UNL1       -0.0549
       3  C14        1.2360   -2.1400    3.8070 C.3       1 UNL1       -0.0549
       4  C15       -0.8930   -2.9290    4.8470 C.3       1 UNL1        0.1380
       5  O14       -0.7440   -4.2420    4.3020 O.3       1 UNL1       -0.3820
       6  C16       -0.1970   -2.8580    6.1820 C.2       1 UNL1        0.2423
       7  O15        0.5790   -3.7300    6.5080 O.2       1 UNL1       -0.2730
       8  N6        -0.4380   -1.8250    7.0130 N.am      1 UNL1       -0.3127
       9  C17        0.2520   -1.7450    8.3020 C.3       1 UNL1        0.0199
      10  C18       -0.1970   -0.4860    9.0460 C.3       1 UNL1        0.0395
      11  H18       -1.6090   -0.3720    4.6020 H         1 UNL1        0.0237
      12  H19        0.0080   -0.3380    5.3430 H         1 UNL1        0.0237
      13  H20       -0.2170    0.2350    3.6740 H         1 UNL1        0.0237
      14  H21        1.4270   -3.1460    3.4350 H         1 UNL1        0.0237
      15  H22        1.6770   -1.4110    3.1270 H         1 UNL1        0.0237
      16  H23        1.6780   -2.0280    4.7970 H         1 UNL1        0.0237
      17  H24       -1.9530   -2.7090    4.9780 H         1 UNL1        0.0696
      18  H25        0.2050   -4.3960    4.2020 H         1 UNL1        0.2105
      19  H26       -1.0700   -1.1340    6.7580 H         1 UNL1        0.1488
      20  H27        1.3280   -1.7030    8.1350 H         1 UNL1        0.0467
      21  H28        0.0110   -2.6250    8.8990 H         1 UNL1        0.0467
      22  H29       -1.2740   -0.5280    9.2120 H         1 UNL1        0.0374
      23  H30        0.0430    0.3930    8.4490 H         1 UNL1        0.0374
@<TRIPOS>BOND
       1        1        2 1
       2        1        3 1
       3        1        4 1
       4        2       11 1
       5        2       12 1
       6        2       13 1
       7        3       14 1
       8        3       15 1
       9        3       16 1
      10        4        5 1
      11        4        6 1
      12        4       17 1
      13        5       18 1
      14        6        7 2
      15        6        8 ar
      16        8        9 1
      17        8       19 1
      18        9       10 1
      19        9       20 1
      20        9       21 1
      21       10       22 1
      22       10       23 1
M SPLT 20 22
M SPLT 32 33 
M SPLT 42 43
