@<TRIPOS>MOLECULE
ACO
    17     16      1
SMALL
USER_CHARGES


@<TRIPOS>ATOM
       1  C19        0.5130   -0.4040   10.3720 C.2       1 UNL1        0.2145
       2  O16        1.3020   -1.2680   10.6910 O.2       1 UNL1       -0.2758
       3  N7         0.2720    0.6280   11.2030 N.am      1 UNL1       -0.3145
       4  C20        0.9630    0.7080   12.4920 C.3       1 UNL1        0.0210
       5  C21        0.5130    1.9680   13.2350 C.3       1 UNL1        0.0165
       6  S1         1.3670    2.0660   14.8280 S.3       1 UNL1       -0.0869
       7  C22        0.7000    3.5220   15.4340 C.2       1 UNL1        0.1864
       8  O17       -0.1110    4.1370   14.7750 O.2       1 UNL1       -0.2855
       9  C23        1.1220    4.0390   16.7850 C.3       1 UNL1        0.0044
      10  H31       -0.3580    1.3190   10.9470 H         1 UNL1        0.1487
      11  H32        2.0400    0.7500   12.3250 H         1 UNL1        0.0470
      12  H33        0.7220   -0.1710   13.0890 H         1 UNL1        0.0470
      13  H34       -0.5620    1.9260   13.4020 H         1 UNL1        0.0396
      14  H35        0.7540    2.8470   12.6380 H         1 UNL1        0.0396
      15  H36        0.5950    4.9690   16.9980 H         1 UNL1        0.0315
      16  H37        0.8790    3.3000   17.5490 H         1 UNL1        0.0315
      17  H38        2.1960    4.2210   16.7850 H         1 UNL1        0.0315
@<TRIPOS>BOND
       1        1        2 2
       2        1        3 ar
       3        3        4 1
       4        3       10 1
       5        4        5 1
       6        4       11 1
       7        4       12 1
       8        5        6 1
       9        5       13 1
      10        5       14 1
      11        6        7 1
      12        7        8 2
      13        7        9 1
      14        9       15 1
      15        9       16 1
      16        9       17 1
M SPLT 20 22
M SPLT 32 33 
M SPLT 42 43
